Circuit: * C:\!MSPICE_JANUS_Optimisation\Actual_netlist_try_217.asc

WARNING: Less than two connections to node N022.  This node is used by V:U1:ZHALF1:5.
WARNING: Less than two connections to node NC_01.  This node is used by V:U1:ZHALF1:6.
WARNING: Less than two connections to node NC_02.  This node is used by V:U1:ZHALF1:8.
WARNING: Less than two connections to node NC_03.  This node is used by V:U1:ZHALF1:10.
WARNING: Less than two connections to node NC_04.  This node is used by V:U1:ZHALF1:12.
WARNING: Less than two connections to node N021.  This node is used by V:U1:ZHALF1:26.
Early termination of direct N-R iteration.
Direct Newton iteration failed to find .op point.  (Use ".option noopiter" to skip.)
Starting Gmin stepping
Gmin = 10
Gmin = 1.07374
vernier = 0.5
vernier = 0.25
Gmin = 0.432872
vernier = 0.333333
vernier = 0.444444
Gmin = 0.200929
vernier = 0.592592
Gmin = 0.0594656
vernier = 0.790123
vernier = 1
Gmin = 0.00899121
Gmin = 0.000965423
Gmin = 0.000103662
Gmin = 1.11306e-005
Gmin = 1.19514e-006
Gmin = 1.28327e-007
Gmin = 1.3779e-008
Gmin = 1.47951e-009
Gmin = 1.58861e-010
Gmin = 1.70576e-011
Gmin = 1.83154e-012
Gmin = 1.9666e-013
Gmin = 0
Gmin stepping succeeded in finding the operating point.

Ignoring empty pin current: Ix(zhalf1:1)
Ignoring empty pin current: Ix(zhalf1:2)
Ignoring empty pin current: Ix(zhalf1:3)
Ignoring empty pin current: Ix(zhalf1:4)
Ignoring empty pin current: Ix(zhalf1:5)
Ignoring empty pin current: Ix(zhalf1:6)
Ignoring empty pin current: Ix(zhalf1:7)
Ignoring empty pin current: Ix(zhalf1:8)
Ignoring empty pin current: Ix(zhalf1:9)
Ignoring empty pin current: Ix(zhalf1:10)
Ignoring empty pin current: Ix(zhalf1:11)
Ignoring empty pin current: Ix(zhalf1:12)
Ignoring empty pin current: Ix(zhalf1:13)
Ignoring empty pin current: Ix(zhalf1:14)
Ignoring empty pin current: Ix(zhalf1:15)
Ignoring empty pin current: Ix(zhalf1:16)
Ignoring empty pin current: Ix(zhalf1:17)
Ignoring empty pin current: Ix(zhalf1:18)
Ignoring empty pin current: Ix(zhalf1:19)
Ignoring empty pin current: Ix(zhalf1:20)
Ignoring empty pin current: Ix(zhalf1:21)
Ignoring empty pin current: Ix(zhalf1:22)
Ignoring empty pin current: Ix(zhalf1:23)
Ignoring empty pin current: Ix(zhalf1:24)
Ignoring empty pin current: Ix(zhalf1:25)
Ignoring empty pin current: Ix(zhalf1:26)
Ignoring empty pin current: Ix(zhalf1:27)
Ignoring empty pin current: Ix(zhalf1:28)
Ignoring empty pin current: Ix(zhalf1:29)
Ignoring empty pin current: Ix(zhalf1:30)
Ignoring empty pin current: Ix(zhalf1:31)
Ignoring empty pin current: Ix(zhalf1:32)
Ignoring empty pin current: Ix(zhalf1:33)
Ignoring empty pin current: Ix(zhalf1:34)
Ignoring empty pin current: Ix(zhalf1:35)
Ignoring empty pin current: Ix(zhalf1:36)
Ignoring empty pin current: Ix(zhalf1:37)
Ignoring empty pin current: Ix(zhalf1:38)
Ignoring empty pin current: Ix(zhalf1:39)
Ignoring empty pin current: Ix(zhalf1:40)
Ignoring empty pin current: Ix(zhalf1:41)
Ignoring empty pin current: Ix(zhalf1:42)
Ignoring empty pin current: Ix(zhalf1:43)
Ignoring empty pin current: Ix(zhalf1:44)
Ignoring empty pin current: Ix(zhalf1:45)
Ignoring empty pin current: Ix(zhalf1:46)
Ignoring empty pin current: Ix(zhalf1:47)
Ignoring empty pin current: Ix(zhalf1:48)
Ignoring empty pin current: Ix(zhalf1:49)
Ignoring empty pin current: Ix(zhalf1:50)
Ignoring empty pin current: Ix(zhalf1:51)
Ignoring empty pin current: Ix(zhalf1:52)
Ignoring empty pin current: Ix(zhalf1:53)
Ignoring empty pin current: Ix(zhalf1:54)
Ignoring empty pin current: Ix(zhalf1:55)
Ignoring empty pin current: Ix(zhalf1:56)
Ignoring empty pin current: Ix(zhalf1:57)
Ignoring empty pin current: Ix(zhalf1:58)
Ignoring empty pin current: Ix(zhalf1:59)
Ignoring empty pin current: Ix(zhalf1:60)
Ignoring empty pin current: Ix(zhalf1:61)
Ignoring empty pin current: Ix(zhalf1:62)
Ignoring empty pin current: Ix(zhalf1:63)
Ignoring empty pin current: Ix(zhalf1:64)
Ignoring empty pin current: Ix(zhalf1:65)
Ignoring empty pin current: Ix(zhalf1:66)
Ignoring empty pin current: Ix(zhalf1:67)
Ignoring empty pin current: Ix(zhalf1:68)
Ignoring empty pin current: Ix(zhalf1:69)
Ignoring empty pin current: Ix(zhalf1:70)
Ignoring empty pin current: Ix(zhalf1:71)
Ignoring empty pin current: Ix(zhalf1:72)
Ignoring empty pin current: Ix(zhalf1:73)
Ignoring empty pin current: Ix(zhalf1:74)
Ignoring empty pin current: Ix(zhalf1:75)
Ignoring empty pin current: Ix(zhalf1:76)
Ignoring empty pin current: Ix(y1:1)
Ignoring empty pin current: Ix(y1:2)
Ignoring empty pin current: Ix(y1:3)
Ignoring empty pin current: Ix(y1:4)
Ignoring empty pin current: Ix(y1:5)
Ignoring empty pin current: Ix(y1:6)
Ignoring empty pin current: Ix(y1:7)
Ignoring empty pin current: Ix(y1:8)
Ignoring empty pin current: Ix(y1:9)
Ignoring empty pin current: Ix(y1:10)
Ignoring empty pin current: Ix(y1:11)
Ignoring empty pin current: Ix(y1:12)
Ignoring empty pin current: Ix(y1:13)
Ignoring empty pin current: Ix(y1:14)
Ignoring empty pin current: Ix(y1:15)
Ignoring empty pin current: Ix(y1:16)
Ignoring empty pin current: Ix(y1:17)
Ignoring empty pin current: Ix(y1:18)
Ignoring empty pin current: Ix(y1:19)
Ignoring empty pin current: Ix(y1:20)
Ignoring empty pin current: Ix(y1:21)
Ignoring empty pin current: Ix(y1:22)
Ignoring empty pin current: Ix(y1:23)
Ignoring empty pin current: Ix(y1:24)
Ignoring empty pin current: Ix(y1:25)
Ignoring empty pin current: Ix(y1:26)
Ignoring empty pin current: Ix(y1:27)
Ignoring empty pin current: Ix(y1:28)
Ignoring empty pin current: Ix(y1:29)
Ignoring empty pin current: Ix(y1:30)
Ignoring empty pin current: Ix(y1:31)
Ignoring empty pin current: Ix(y1:32)
Ignoring empty pin current: Ix(y1:33)
Ignoring empty pin current: Ix(y1:34)
Ignoring empty pin current: Ix(y1:35)
Ignoring empty pin current: Ix(y1:36)
Ignoring empty pin current: Ix(y1:37)
Ignoring empty pin current: Ix(y1:38)
Ignoring empty pin current: Ix(zhalf2:1)
Ignoring empty pin current: Ix(zhalf2:2)
Ignoring empty pin current: Ix(zhalf2:3)
Ignoring empty pin current: Ix(zhalf2:4)
Ignoring empty pin current: Ix(zhalf2:5)
Ignoring empty pin current: Ix(zhalf2:6)
Ignoring empty pin current: Ix(zhalf2:7)
Ignoring empty pin current: Ix(zhalf2:8)
Ignoring empty pin current: Ix(zhalf2:9)
Ignoring empty pin current: Ix(zhalf2:10)
Ignoring empty pin current: Ix(zhalf2:11)
Ignoring empty pin current: Ix(zhalf2:12)
Ignoring empty pin current: Ix(zhalf2:13)
Ignoring empty pin current: Ix(zhalf2:14)
Ignoring empty pin current: Ix(zhalf2:15)
Ignoring empty pin current: Ix(zhalf2:16)
Ignoring empty pin current: Ix(zhalf2:17)
Ignoring empty pin current: Ix(zhalf2:18)
Ignoring empty pin current: Ix(zhalf2:19)
Ignoring empty pin current: Ix(zhalf2:20)
Ignoring empty pin current: Ix(zhalf2:21)
Ignoring empty pin current: Ix(zhalf2:22)
Ignoring empty pin current: Ix(zhalf2:23)
Ignoring empty pin current: Ix(zhalf2:24)
Ignoring empty pin current: Ix(zhalf2:25)
Ignoring empty pin current: Ix(zhalf2:26)
Ignoring empty pin current: Ix(zhalf2:27)
Ignoring empty pin current: Ix(zhalf2:28)
Ignoring empty pin current: Ix(zhalf2:29)
Ignoring empty pin current: Ix(zhalf2:30)
Ignoring empty pin current: Ix(zhalf2:31)
Ignoring empty pin current: Ix(zhalf2:32)
Ignoring empty pin current: Ix(zhalf2:33)
Ignoring empty pin current: Ix(zhalf2:34)
Ignoring empty pin current: Ix(zhalf2:35)
Ignoring empty pin current: Ix(zhalf2:36)
Ignoring empty pin current: Ix(zhalf2:37)
Ignoring empty pin current: Ix(zhalf2:38)
Ignoring empty pin current: Ix(zhalf2:39)
Ignoring empty pin current: Ix(zhalf2:40)
Ignoring empty pin current: Ix(zhalf2:41)
Ignoring empty pin current: Ix(zhalf2:42)
Ignoring empty pin current: Ix(zhalf2:43)
Ignoring empty pin current: Ix(zhalf2:44)
Ignoring empty pin current: Ix(zhalf2:45)
Ignoring empty pin current: Ix(zhalf2:46)
Ignoring empty pin current: Ix(zhalf2:47)
Ignoring empty pin current: Ix(zhalf2:48)
Ignoring empty pin current: Ix(zhalf2:49)
Ignoring empty pin current: Ix(zhalf2:50)
Ignoring empty pin current: Ix(zhalf2:51)
Ignoring empty pin current: Ix(zhalf2:52)
Ignoring empty pin current: Ix(zhalf2:53)
Ignoring empty pin current: Ix(zhalf2:54)
Ignoring empty pin current: Ix(zhalf2:55)
Ignoring empty pin current: Ix(zhalf2:56)
Ignoring empty pin current: Ix(zhalf2:57)
Ignoring empty pin current: Ix(zhalf2:58)
Ignoring empty pin current: Ix(zhalf2:59)
Ignoring empty pin current: Ix(zhalf2:60)
Ignoring empty pin current: Ix(zhalf2:61)
Ignoring empty pin current: Ix(zhalf2:62)
Ignoring empty pin current: Ix(zhalf2:63)
Ignoring empty pin current: Ix(zhalf2:64)
Ignoring empty pin current: Ix(zhalf2:65)
Ignoring empty pin current: Ix(zhalf2:66)
Ignoring empty pin current: Ix(zhalf2:67)
Ignoring empty pin current: Ix(zhalf2:68)
Ignoring empty pin current: Ix(zhalf2:69)
Ignoring empty pin current: Ix(zhalf2:70)
Ignoring empty pin current: Ix(zhalf2:71)
Ignoring empty pin current: Ix(zhalf2:72)
Ignoring empty pin current: Ix(zhalf2:73)
Ignoring empty pin current: Ix(zhalf2:74)
Ignoring empty pin current: Ix(zhalf2:75)
Ignoring empty pin current: Ix(zhalf2:76)
Ignoring empty pin current: Ix(u1:1)
Ignoring empty pin current: Ix(u1:2)
Ignoring empty pin current: Ix(u1:3)
Ignoring empty pin current: Ix(u1:4)
Ignoring empty pin current: Ix(u1:5)
Ignoring empty pin current: Ix(u1:6)
Ignoring empty pin current: Ix(u1:7)
Ignoring empty pin current: Ix(u1:8)
Ignoring empty pin current: Ix(u1:9)
Ignoring empty pin current: Ix(u1:10)
Ignoring empty pin current: Ix(u1:11)
Ignoring empty pin current: Ix(u1:12)
Ignoring empty pin current: Ix(u1:13)
Ignoring empty pin current: Ix(u1:14)
Ignoring empty pin current: Ix(u1:15)
Ignoring empty pin current: Ix(u1:16)
Ignoring empty pin current: Ix(u1:17)
Ignoring empty pin current: Ix(u1:18)
Ignoring empty pin current: Ix(u1:19)
Ignoring empty pin current: Ix(u1:20)
Ignoring empty pin current: Ix(u1:21)
Ignoring empty pin current: Ix(u1:22)
Ignoring empty pin current: Ix(u1:23)
Ignoring empty pin current: Ix(u1:24)
Ignoring empty pin current: Ix(u1:25)
Ignoring empty pin current: Ix(u1:26)
Ignoring empty pin current: Ix(u1:27)
Ignoring empty pin current: Ix(u1:28)
Ignoring empty pin current: Ix(u1:29)
Ignoring empty pin current: Ix(u1:30)
Ignoring empty pin current: Ix(u1:31)
Ignoring empty pin current: Ix(u1:32)
Ignoring empty pin current: Ix(u1:33)
Ignoring empty pin current: Ix(u1:34)
Ignoring empty pin current: Ix(u1:35)
Ignoring empty pin current: Ix(u1:36)
Ignoring empty pin current: Ix(u1:37)
Ignoring empty pin current: Ix(u1:38)
Ignoring empty pin current: Ix(u1:39)
Ignoring empty pin current: Ix(u1:40)
Ignoring empty pin current: Ix(u1:41)
Ignoring empty pin current: Ix(u1:42)
Ignoring empty pin current: Ix(u1:43)
Ignoring empty pin current: Ix(u1:44)
Ignoring empty pin current: Ix(u1:45)
Ignoring empty pin current: Ix(u1:46)
Ignoring empty pin current: Ix(u1:47)
Ignoring empty pin current: Ix(q1:gmos:g1)
Ignoring empty pin current: Ix(q1:gmos:tj)
Ignoring empty pin current: Ix(q2:gmos:g1)
Ignoring empty pin current: Ix(q2:gmos:tj)
Ignoring empty pin current: Ix(q3:gmos:g1)
Ignoring empty pin current: Ix(q3:gmos:tj)
Ignoring empty pin current: Ix(q4:gmos:g1)
Ignoring empty pin current: Ix(q4:gmos:tj)
Ignoring empty pin current: Ix(zhalf1:1)
Ignoring empty pin current: Ix(zhalf1:2)
Ignoring empty pin current: Ix(zhalf1:3)
Ignoring empty pin current: Ix(zhalf1:4)
Ignoring empty pin current: Ix(zhalf1:5)
Ignoring empty pin current: Ix(zhalf1:6)
Ignoring empty pin current: Ix(zhalf1:7)
Ignoring empty pin current: Ix(zhalf1:8)
Ignoring empty pin current: Ix(zhalf1:9)
Ignoring empty pin current: Ix(zhalf1:10)
Ignoring empty pin current: Ix(zhalf1:11)
Ignoring empty pin current: Ix(zhalf1:12)
Ignoring empty pin current: Ix(zhalf1:13)
Ignoring empty pin current: Ix(zhalf1:14)
Ignoring empty pin current: Ix(zhalf1:15)
Ignoring empty pin current: Ix(zhalf1:16)
Ignoring empty pin current: Ix(zhalf1:17)
Ignoring empty pin current: Ix(zhalf1:18)
Ignoring empty pin current: Ix(zhalf1:19)
Ignoring empty pin current: Ix(zhalf1:20)
Ignoring empty pin current: Ix(zhalf1:21)
Ignoring empty pin current: Ix(zhalf1:22)
Ignoring empty pin current: Ix(zhalf1:23)
Ignoring empty pin current: Ix(zhalf1:24)
Ignoring empty pin current: Ix(zhalf1:25)
Ignoring empty pin current: Ix(zhalf1:26)
Ignoring empty pin current: Ix(zhalf1:27)
Ignoring empty pin current: Ix(zhalf1:28)
Ignoring empty pin current: Ix(zhalf1:29)
Ignoring empty pin current: Ix(zhalf1:30)
Ignoring empty pin current: Ix(zhalf1:31)
Ignoring empty pin current: Ix(zhalf1:32)
Ignoring empty pin current: Ix(zhalf1:33)
Ignoring empty pin current: Ix(zhalf1:34)
Ignoring empty pin current: Ix(zhalf1:35)
Ignoring empty pin current: Ix(zhalf1:36)
Ignoring empty pin current: Ix(zhalf1:37)
Ignoring empty pin current: Ix(zhalf1:38)
Ignoring empty pin current: Ix(zhalf1:39)
Ignoring empty pin current: Ix(zhalf1:40)
Ignoring empty pin current: Ix(zhalf1:41)
Ignoring empty pin current: Ix(zhalf1:42)
Ignoring empty pin current: Ix(zhalf1:43)
Ignoring empty pin current: Ix(zhalf1:44)
Ignoring empty pin current: Ix(zhalf1:45)
Ignoring empty pin current: Ix(zhalf1:46)
Ignoring empty pin current: Ix(zhalf1:47)
Ignoring empty pin current: Ix(zhalf1:48)
Ignoring empty pin current: Ix(zhalf1:49)
Ignoring empty pin current: Ix(zhalf1:50)
Ignoring empty pin current: Ix(zhalf1:51)
Ignoring empty pin current: Ix(zhalf1:52)
Ignoring empty pin current: Ix(zhalf1:53)
Ignoring empty pin current: Ix(zhalf1:54)
Ignoring empty pin current: Ix(zhalf1:55)
Ignoring empty pin current: Ix(zhalf1:56)
Ignoring empty pin current: Ix(zhalf1:57)
Ignoring empty pin current: Ix(zhalf1:58)
Ignoring empty pin current: Ix(zhalf1:59)
Ignoring empty pin current: Ix(zhalf1:60)
Ignoring empty pin current: Ix(zhalf1:61)
Ignoring empty pin current: Ix(zhalf1:62)
Ignoring empty pin current: Ix(zhalf1:63)
Ignoring empty pin current: Ix(zhalf1:64)
Ignoring empty pin current: Ix(zhalf1:65)
Ignoring empty pin current: Ix(zhalf1:66)
Ignoring empty pin current: Ix(zhalf1:67)
Ignoring empty pin current: Ix(zhalf1:68)
Ignoring empty pin current: Ix(zhalf1:69)
Ignoring empty pin current: Ix(zhalf1:70)
Ignoring empty pin current: Ix(zhalf1:71)
Ignoring empty pin current: Ix(zhalf1:72)
Ignoring empty pin current: Ix(zhalf1:73)
Ignoring empty pin current: Ix(zhalf1:74)
Ignoring empty pin current: Ix(zhalf1:75)
Ignoring empty pin current: Ix(zhalf1:76)
Ignoring empty pin current: Ix(y1:1)
Ignoring empty pin current: Ix(y1:2)
Ignoring empty pin current: Ix(y1:3)
Ignoring empty pin current: Ix(y1:4)
Ignoring empty pin current: Ix(y1:5)
Ignoring empty pin current: Ix(y1:6)
Ignoring empty pin current: Ix(y1:7)
Ignoring empty pin current: Ix(y1:8)
Ignoring empty pin current: Ix(y1:9)
Ignoring empty pin current: Ix(y1:10)
Ignoring empty pin current: Ix(y1:11)
Ignoring empty pin current: Ix(y1:12)
Ignoring empty pin current: Ix(y1:13)
Ignoring empty pin current: Ix(y1:14)
Ignoring empty pin current: Ix(y1:15)
Ignoring empty pin current: Ix(y1:16)
Ignoring empty pin current: Ix(y1:17)
Ignoring empty pin current: Ix(y1:18)
Ignoring empty pin current: Ix(y1:19)
Ignoring empty pin current: Ix(y1:20)
Ignoring empty pin current: Ix(y1:21)
Ignoring empty pin current: Ix(y1:22)
Ignoring empty pin current: Ix(y1:23)
Ignoring empty pin current: Ix(y1:24)
Ignoring empty pin current: Ix(y1:25)
Ignoring empty pin current: Ix(y1:26)
Ignoring empty pin current: Ix(y1:27)
Ignoring empty pin current: Ix(y1:28)
Ignoring empty pin current: Ix(y1:29)
Ignoring empty pin current: Ix(y1:30)
Ignoring empty pin current: Ix(y1:31)
Ignoring empty pin current: Ix(y1:32)
Ignoring empty pin current: Ix(y1:33)
Ignoring empty pin current: Ix(y1:34)
Ignoring empty pin current: Ix(y1:35)
Ignoring empty pin current: Ix(y1:36)
Ignoring empty pin current: Ix(y1:37)
Ignoring empty pin current: Ix(y1:38)
Ignoring empty pin current: Ix(zhalf2:1)
Ignoring empty pin current: Ix(zhalf2:2)
Ignoring empty pin current: Ix(zhalf2:3)
Ignoring empty pin current: Ix(zhalf2:4)
Ignoring empty pin current: Ix(zhalf2:5)
Ignoring empty pin current: Ix(zhalf2:6)
Ignoring empty pin current: Ix(zhalf2:7)
Ignoring empty pin current: Ix(zhalf2:8)
Ignoring empty pin current: Ix(zhalf2:9)
Ignoring empty pin current: Ix(zhalf2:10)
Ignoring empty pin current: Ix(zhalf2:11)
Ignoring empty pin current: Ix(zhalf2:12)
Ignoring empty pin current: Ix(zhalf2:13)
Ignoring empty pin current: Ix(zhalf2:14)
Ignoring empty pin current: Ix(zhalf2:15)
Ignoring empty pin current: Ix(zhalf2:16)
Ignoring empty pin current: Ix(zhalf2:17)
Ignoring empty pin current: Ix(zhalf2:18)
Ignoring empty pin current: Ix(zhalf2:19)
Ignoring empty pin current: Ix(zhalf2:20)
Ignoring empty pin current: Ix(zhalf2:21)
Ignoring empty pin current: Ix(zhalf2:22)
Ignoring empty pin current: Ix(zhalf2:23)
Ignoring empty pin current: Ix(zhalf2:24)
Ignoring empty pin current: Ix(zhalf2:25)
Ignoring empty pin current: Ix(zhalf2:26)
Ignoring empty pin current: Ix(zhalf2:27)
Ignoring empty pin current: Ix(zhalf2:28)
Ignoring empty pin current: Ix(zhalf2:29)
Ignoring empty pin current: Ix(zhalf2:30)
Ignoring empty pin current: Ix(zhalf2:31)
Ignoring empty pin current: Ix(zhalf2:32)
Ignoring empty pin current: Ix(zhalf2:33)
Ignoring empty pin current: Ix(zhalf2:34)
Ignoring empty pin current: Ix(zhalf2:35)
Ignoring empty pin current: Ix(zhalf2:36)
Ignoring empty pin current: Ix(zhalf2:37)
Ignoring empty pin current: Ix(zhalf2:38)
Ignoring empty pin current: Ix(zhalf2:39)
Ignoring empty pin current: Ix(zhalf2:40)
Ignoring empty pin current: Ix(zhalf2:41)
Ignoring empty pin current: Ix(zhalf2:42)
Ignoring empty pin current: Ix(zhalf2:43)
Ignoring empty pin current: Ix(zhalf2:44)
Ignoring empty pin current: Ix(zhalf2:45)
Ignoring empty pin current: Ix(zhalf2:46)
Ignoring empty pin current: Ix(zhalf2:47)
Ignoring empty pin current: Ix(zhalf2:48)
Ignoring empty pin current: Ix(zhalf2:49)
Ignoring empty pin current: Ix(zhalf2:50)
Ignoring empty pin current: Ix(zhalf2:51)
Ignoring empty pin current: Ix(zhalf2:52)
Ignoring empty pin current: Ix(zhalf2:53)
Ignoring empty pin current: Ix(zhalf2:54)
Ignoring empty pin current: Ix(zhalf2:55)
Ignoring empty pin current: Ix(zhalf2:56)
Ignoring empty pin current: Ix(zhalf2:57)
Ignoring empty pin current: Ix(zhalf2:58)
Ignoring empty pin current: Ix(zhalf2:59)
Ignoring empty pin current: Ix(zhalf2:60)
Ignoring empty pin current: Ix(zhalf2:61)
Ignoring empty pin current: Ix(zhalf2:62)
Ignoring empty pin current: Ix(zhalf2:63)
Ignoring empty pin current: Ix(zhalf2:64)
Ignoring empty pin current: Ix(zhalf2:65)
Ignoring empty pin current: Ix(zhalf2:66)
Ignoring empty pin current: Ix(zhalf2:67)
Ignoring empty pin current: Ix(zhalf2:68)
Ignoring empty pin current: Ix(zhalf2:69)
Ignoring empty pin current: Ix(zhalf2:70)
Ignoring empty pin current: Ix(zhalf2:71)
Ignoring empty pin current: Ix(zhalf2:72)
Ignoring empty pin current: Ix(zhalf2:73)
Ignoring empty pin current: Ix(zhalf2:74)
Ignoring empty pin current: Ix(zhalf2:75)
Ignoring empty pin current: Ix(zhalf2:76)
Ignoring empty pin current: Ix(u1:1)
Ignoring empty pin current: Ix(u1:2)
Ignoring empty pin current: Ix(u1:3)
Ignoring empty pin current: Ix(u1:4)
Ignoring empty pin current: Ix(u1:5)
Ignoring empty pin current: Ix(u1:6)
Ignoring empty pin current: Ix(u1:7)
Ignoring empty pin current: Ix(u1:8)
Ignoring empty pin current: Ix(u1:9)
Ignoring empty pin current: Ix(u1:10)
Ignoring empty pin current: Ix(u1:11)
Ignoring empty pin current: Ix(u1:12)
Ignoring empty pin current: Ix(u1:13)
Ignoring empty pin current: Ix(u1:14)
Ignoring empty pin current: Ix(u1:15)
Ignoring empty pin current: Ix(u1:16)
Ignoring empty pin current: Ix(u1:17)
Ignoring empty pin current: Ix(u1:18)
Ignoring empty pin current: Ix(u1:19)
Ignoring empty pin current: Ix(u1:20)
Ignoring empty pin current: Ix(u1:21)
Ignoring empty pin current: Ix(u1:22)
Ignoring empty pin current: Ix(u1:23)
Ignoring empty pin current: Ix(u1:24)
Ignoring empty pin current: Ix(u1:25)
Ignoring empty pin current: Ix(u1:26)
Ignoring empty pin current: Ix(u1:27)
Ignoring empty pin current: Ix(u1:28)
Ignoring empty pin current: Ix(u1:29)
Ignoring empty pin current: Ix(u1:30)
Ignoring empty pin current: Ix(u1:31)
Ignoring empty pin current: Ix(u1:32)
Ignoring empty pin current: Ix(u1:33)
Ignoring empty pin current: Ix(u1:34)
Ignoring empty pin current: Ix(u1:35)
Ignoring empty pin current: Ix(u1:36)
Ignoring empty pin current: Ix(u1:37)
Ignoring empty pin current: Ix(u1:38)
Ignoring empty pin current: Ix(u1:39)
Ignoring empty pin current: Ix(u1:40)
Ignoring empty pin current: Ix(u1:41)
Ignoring empty pin current: Ix(u1:42)
Ignoring empty pin current: Ix(u1:43)
Ignoring empty pin current: Ix(u1:44)
Ignoring empty pin current: Ix(u1:45)
Ignoring empty pin current: Ix(u1:46)
Ignoring empty pin current: Ix(u1:47)
Ignoring empty pin current: Ix(q1:gmos:g1)
Ignoring empty pin current: Ix(q1:gmos:tj)
Ignoring empty pin current: Ix(q2:gmos:g1)
Ignoring empty pin current: Ix(q2:gmos:tj)
Ignoring empty pin current: Ix(q3:gmos:g1)
Ignoring empty pin current: Ix(q3:gmos:tj)
Ignoring empty pin current: Ix(q4:gmos:g1)
Ignoring empty pin current: Ix(q4:gmos:tj)

Date: Fri Jan 20 14:40:16 2023
Total elapsed time: 332.133 seconds.

tnom = 27
temp = 27
method = Gear
totiter = 40411
traniter = 39721
tranpoints = 19198
accept = 14029
rejected = 5169
matrix size = 465
fillins = 13680
solver = Alternate
Thread vector: 257.9/133.6[8] 161.3/88.1[8] 28.3/18.6[8] 90.1/43.4[7]  2592/500
Matrix Compiler1: 25.45 MB object code size  12627.8/6981.8/[6309.0]
Matrix Compiler2: 606.86 KB object code size  585.8/336.8/[196.6]

